6

H    0.4483918    0.0110995    -2.4956896
O    -0.1960669    -0.0177922    -1.7798977
C    0.5913060529411766    0.01920521764705882    -0.5380446117647059
C    -0.5913059470588236    0.019207947058823532    0.5380445117647059
O    0.1960667    -0.0177946    1.7798976
H    -0.4483938    0.0110582    2.4956895
