6

H    0.3950554    -0.1216392    -2.4877548
O    -0.1982408    -0.2182291    -1.7339143
C    0.5677884117647058    0.25363149411764707    -0.5689593235294117
C    -0.5677884176470588    0.25363149411764707    0.5689592235294118
O    0.1982408    -0.2182291    1.7339142
H    -0.3950555    -0.1216393    2.4877547
