6

H    0.2807434    -0.6068209    -2.2352226
O    -0.1716172    -0.5530157    -1.387743
C    0.3226148352941176    0.6621625999999999    -0.7290729176470588
C    -0.3226148411764706    0.6621626    0.7290729117647059
O    0.1716172    -0.5530157    1.387743
H    -0.2807439    -0.6068213    2.2352223
