6

H    0.2201828    -0.5836556    -2.2482772
O    -0.1585753    -0.5695655    -1.3638051
C    0.2955565176470588    0.6790387588235296    -0.7414662941176471
C    -0.2955567176470588    0.6790386588235293    0.7414662882352941
O    0.1585751    -0.5695656    1.3638049
H    -0.2201842    -0.5836565    2.2482765
