6

H    -0.0016921    -0.5842389    -2.2396891
O    -0.0289253    -0.6348252    -1.2787444
C    0.05367755882352941    0.7519295588235293    -0.8135921176470589
C    -0.05367746470588236    0.7519295588235293    0.8135921117647058
O    0.0289253    -0.6348252    1.2787444
H    0.0016942    -0.5842387    2.2396891
