6

H    0.3991754    -0.0379453    -2.5149691
O    -0.1960637    -0.1540657    -1.7678661
C    0.579425794117647    0.1757148117647059    -0.5587966058823529
C    -0.5794256941176471    0.1757148117647059    0.5587966
O    0.1960637    -0.1540657    1.7678661
H    -0.3991755    -0.0379452    2.514969
