6

H    0.3939594    -0.1514933    -2.482154
O    -0.1989612    -0.2336558    -1.7262182
C    0.5636962352941177    0.2730212    -0.5736033764705882
C    -0.5636960235294118    0.2730216470588236    0.5736033647058824
O    0.198961    -0.233656    1.7262181
H    -0.3939608    -0.151496    2.4821533
