6

H    0.4212156    -0.6871721    -2.1690847
O    -0.1990416    -0.494412    -1.4574353
C    0.4008071058823529    0.6024483529411765    -0.6864661529411765
C    -0.40080666470588233    0.6024485999999999    0.6864662647058823
O    0.1990412    -0.4944125    1.4574351
H    -0.421213    -0.6871675    2.1690885
