6

H    0.0242621    -0.5729705    -2.2462484
O    -0.0764712    -0.6238482    -1.2903125
C    0.14052676470588235    0.7389104470588235    -0.797448705882353
C    -0.14052676470588235    0.7389104470588235    0.797448705882353
O    0.0764712    -0.6238482    1.2903125
H    -0.0242615    -0.5729704    2.2462484
