6

H    0.1185099    -0.5659985    -2.2545023
O    -0.1287294    -0.5967762    -1.3249005
C    0.23728483529411762    0.7082053999999999    -0.7658153529411763
C    -0.23728495882352943    0.7082053882352941    0.7658153411764705
O    0.1287296    -0.5967761    1.3249005
H    -0.1185149    -0.5660004    2.254501
