6

H    0.393547    -0.6808637    -2.187975
O    -0.1917276    -0.5142609    -1.4430301
C    0.3734146    0.6240872764705883    -0.7041585882352941
C    -0.3734143823529412    0.6240874823529413    0.7041586941176471
O    0.1917274    -0.5142611    1.4430301
H    -0.3935453    -0.6808614    2.187977
