6

H    0.3948531    -0.2490565    -2.4567906
O    -0.2012366    -0.2787292    -1.6992374
C    0.5491918588235294    0.33034312941176464    -0.5885365294117647
C    -0.5491908764705883    0.3303447764705882    0.5885363352941176
O    0.2012356    -0.27873    1.6992372
H    -0.3948566    -0.2490617    2.4567886
