6

H    0.3039088    -0.6094137    -2.2133315
O    -0.1791662    -0.545699    -1.3818555
C    0.3391749529411765    0.6543118411764705    -0.7182254764705883
C    -0.33917518823529413    0.6543117235294117    0.7182253588235293
O    0.1791666    -0.5456986    1.3818558
H    -0.303913    -0.6094171    2.2133287
