6

H    0.0082982    -0.5778821    -2.2431458
O    -0.057673    -0.6294626    -1.2841794
C    0.10633100000000001    0.7455122823529412    -0.8053794529411764
C    -0.10633099411764707    0.7455122823529412    0.8053794529411764
O    0.057673    -0.6294626    1.2841794
H    -0.0082974    -0.577882    2.2431458
