6

H    0.3897002    -0.3561535    -2.4352551
O    -0.2023189    -0.3217087    -1.6766262
C    0.5296896352941177    0.38585758823529415    -0.6093015823529412
C    -0.5296876470588235    0.38586050588235293    0.609301394117647
O    0.2023167    -0.3217109    1.6766256
H    -0.3897029    -0.356153    2.4352543
