6

H    0.3915371    -0.6679275    -2.1760372
O    -0.1935285    -0.5156687    -1.425803
C    0.3766776176470588    0.6248720647058823    -0.6993480235294117
C    -0.37667727647058824    0.6248722882352941    0.6993481411764706
O    0.1935281    -0.5156692    1.4258027
H    -0.3915336    -0.667923    2.176041
