6

H    0.3661977    -0.6486904    -2.188161
O    -0.1894908    -0.5260513    -1.4105811
C    0.36437769411764703    0.6351232352941176    -0.7056806705882354
C    -0.3643777705882353    0.6351231470588236    0.705680594117647
O    0.1894903    -0.5260518    1.4105806
H    -0.3661961    -0.6486888    2.1881624
