6

H    0.426465    -0.6225666    -2.2436906
O    -0.2043228    -0.4384653    -1.5383992
C    0.45592455882352945    0.5352627352941176    -0.6549796176470588
C    -0.4559245529411765    0.5352628294117647    0.6549796235294117
O    0.2043228    -0.4384652    1.5383992
H    -0.4264648    -0.6225661    2.2436908
