6

H    0.2092528    -0.5719532    -2.2341872
O    -0.1600416    -0.5714621    -1.3438023
C    0.2990188117647059    0.6804846588235295    -0.7370812176470588
C    -0.2990181294117647    0.6804850764705882    0.7370809823529413
O    0.1600461    -0.5714588    1.3438048
H    -0.2092785    -0.5719664    2.2341772
