6

H    2.78e-05    -0.5867877    -2.2384372
O    0.0    -0.6365961    -1.2770497
C    -2.5882352941267665e-07    0.7540841117647059    -0.8164736235294119
C    9.117647058791831e-07    0.7540841117647058    0.8164736235294118
O    1.9e-06    -0.6365961    1.2770497
H    -1.35e-05    -0.5867877    2.2384372
