6

H    0.4071599    -0.0232357    -2.498658
O    -0.1960619    -0.1545598    -1.7584431
C    0.580665505882353    0.17527369999999998    -0.5529362705882354
C    -0.5806654058823529    0.17527369999999998    0.5529361764705883
O    0.1960618    -0.1545598    1.7584431
H    -0.4071601    -0.0232362    2.4986579
