6

H    0.3924359    -0.3903406    -2.4195899
O    -0.2027888    -0.3356304    -1.6646663
C    0.5228060529411765    0.4038153058823529    -0.6146720411764707
C    -0.5228011588235293    0.4038215529411765    0.6146720352941177
O    0.2027846    -0.3356333    1.6646661
H    -0.3924414    -0.3903373    2.4195893
