6

H    0.3854838    -0.2878112    -2.4622681
O    -0.2011737    -0.2931586    -1.6987891
C    0.5422240411764706    0.3491412529411764    -0.5987577411764705
C    -0.5422240352941178    0.3491413647058823    0.5987577411764705
O    0.2011736    -0.2931587    1.6987891
H    -0.385484    -0.2878114    2.462268
