6

H    0.0267261    -0.5661061    -2.2280072
O    -0.0779664    -0.6256161    -1.2711972
C    0.14161822941176472    0.7405548529411765    -0.794115205882353
C    -0.14161822941176472    0.7405548529411764    0.794115205882353
O    0.0779666    -0.6256161    1.2711972
H    -0.0267262    -0.5661061    2.2280072
