6

H    0.4346053    0.0098748    -2.5137559
O    -0.1958536    -0.0351388    -1.7885404
C    0.5897277882352941    0.03878559411764705    -0.5446100058823529
C    -0.5897276764705883    0.038786317647058824    0.5446098882352941
O    0.1958535    -0.03514    1.7885403
H    -0.4346065    0.0098621    2.5137556
