6

H    0.3842397    -0.1596406    -2.4983321
O    -0.1985322    -0.2333979    -1.7357115
C    0.5624764941176471    0.2732375588235294    -0.5789422235294117
C    -0.5624764941176471    0.27323747058823533    0.5789422235294117
O    0.1985322    -0.233398    1.7357115
H    -0.3842397    -0.1596405    2.4983321
