6

H    0.4042152    -0.0215045    -2.5156836
O    -0.1958229    -0.1376048    -1.7725054
C    0.5817948647058823    0.15608271176470587    -0.5556701705882353
C    -0.5817947647058823    0.15608271176470587    0.5556702529411764
O    0.1958229    -0.1376048    1.7725054
H    -0.4042154    -0.0215044    2.5156835
