6

H    0.4283752    -0.6434987    -2.2237458
O    -0.2037868    -0.4501151    -1.5223278
C    0.4456384705882353    0.5497811235294118    -0.6610538882352942
C    -0.4456383647058824    0.5497811411764706    0.6610538941176471
O    0.2037866    -0.4501152    1.5223277
H    -0.4283747    -0.6434975    2.2237465
