6

H    0.4129505    -0.5788884    -2.3029306
O    -0.2035467    -0.413814    -1.5823186
C    0.47304571176470595    0.5044924294117648    -0.6481411823529413
C    -0.4730456058823529    0.5044925411764706    0.6481412705882352
O    0.2035467    -0.413814    1.5823186
H    -0.4129504    -0.5788878    2.3029309
