6

H    0.3841501    -0.2542126    -2.4735265
O    -0.2005305    -0.2785412    -1.7089562
C    0.5478809705882353    0.33043725294117643    -0.593611094117647
C    -0.5478809705882353    0.3304373411764705    0.5936110882352941
O    0.2005304    -0.2785413    1.7089562
H    -0.3841502    -0.2542128    2.4735264
