6

H    0.0979239    -0.5654308    -2.2537804
O    -0.1205712    -0.6023983    -1.3171978
C    0.22187735882352944    0.7144440235294117    -0.771649817647059
C    -0.22187766470588233    0.714444111764706    0.7716497058823528
O    0.120571    -0.6023982    1.3171978
H    -0.097931    -0.5654331    2.2537788
