6

H    0.2393565    -0.5811548    -2.2297038
O    -0.1667751    -0.5633943    -1.3557534
C    0.3127773823529412    0.6721124823529411    -0.7307836176470588
C    -0.3127781058823529    0.6721125117647058    0.7307831411764707
O    0.166777    -0.5633925    1.3557544
H    -0.2393795    -0.5811686    2.2296929
