6

H    0.4293035    -0.6754092    -2.1890296
O    -0.20208    -0.4726704    -1.4898449
C    0.4239296705882353    0.5772833411764706    -0.6735739823529411
C    -0.4239291117647059    0.5772838117647059    0.673574188235294
O    0.2020795    -0.4726709    1.4898446
H    -0.4293007    -0.6754032    2.1890343
