6

H    0.4120438    -0.0054519    -2.4991993
O    -0.1957621    -0.1381541    -1.7630738
C    0.5830495058823529    0.1555939529411765    -0.5497245470588235
C    -0.5830494117647058    0.15559405294117648    0.5497244411764707
O    0.195762    -0.1381541    1.7630738
H    -0.4120443    -0.0054528    2.4991992
