6

H    0.4213095    -0.5733691    -2.2854854
O    -0.204912    -0.4143736    -1.5698205
C    0.47535808235294114    0.5048301352941177    -0.6431811999999999
C    -0.47535808235294114    0.5048301411764706    0.6431812882352941
O    0.204912    -0.4143736    1.5698205
H    -0.4213094    -0.5733688    2.2854855
