6

H    0.0912678    -0.5576607    -2.2360737
O    -0.122056    -0.6042815    -1.2969474
C    0.2243475882352941    0.7161685764705882    -0.7678768882352941
C    -0.2243475588235294    0.7161687529411764    0.7678766411764706
O    0.1220575    -0.6042805    1.2969479
H    -0.0912836    -0.5576653    2.2360705
